15

N         -2.84331        0.00820        0.18642
C         -1.45511        0.00915        0.00782
C         -0.74219       -1.19402        0.03247
C          0.65563       -1.20062       -0.00423
C          1.34220        0.00760       -0.02432
O          2.70430        0.05204       -0.04559
C          0.65392        1.21309       -0.00020
C         -0.74254        1.21127        0.03835
H         -3.30222       -0.83038       -0.15415
H         -3.29879        0.85606       -0.13647
H         -1.27335       -2.14072        0.08177
H          1.18189       -2.14934        0.00065
H          3.04285       -0.85774       -0.02160
H          1.19964        2.15188        0.00844
H         -1.26896        2.15995        0.09353
