20

N          2.76826       -0.04239        0.17700
C          1.37967       -0.02334       -0.00698
C          0.65113       -1.21574        0.01980
C         -0.75014       -1.20886       -0.01490
C         -1.52718       -2.49176       -0.00138
C         -1.42672        0.01693       -0.03898
C         -0.71698        1.22228       -0.01554
C         -1.43208        2.54018       -0.00952
C          0.68469        1.18851        0.02134
H          3.21201       -0.89387       -0.15389
H          3.23640        0.79287       -0.15828
H          1.18097       -2.16370        0.07046
H         -0.86411       -3.36334        0.01511
H         -2.15297       -2.56446       -0.89725
H         -2.16368       -2.53773        0.88802
H         -2.51445        0.02818       -0.05435
H         -2.51889        2.40911       -0.03776
H         -1.14254        3.12934       -0.88612
H         -1.18470        3.10026        0.89814
H          1.23769        2.12330        0.07475
