18

N          2.32200       -0.03470       -0.18503
C          0.93277       -0.00626       -0.00612
C          0.24678        1.20837       -0.03429
C         -1.14843        1.23738        0.01113
C         -1.87542        0.04596        0.04207
C         -1.20711       -1.17699        0.01058
O         -1.79359       -2.41341        0.00835
C         -3.21469       -2.44902        0.03068
C          0.19249       -1.19200       -0.03326
H          2.79569        0.79517        0.15628
H          2.75650       -0.89088        0.14609
H          0.79388        2.14514       -0.09221
H         -1.66935        2.19115        0.00685
H         -2.95787        0.10830        0.07050
H         -3.52353       -3.49901        0.01156
H         -3.63730       -1.96265       -0.85458
H         -3.60566       -2.00418        0.95181
H          0.70348       -2.14959       -0.08871
