18

N          0.87455       -0.21812       -2.31987
O          2.33545       -0.19905       -2.23094
C          2.74127       -0.93814       -1.06989
C          4.24650       -0.93338       -0.98487
C          4.94783        0.27683       -0.89519
C          6.34135        0.28620       -0.80050
C          7.04509       -0.91601       -0.78897
C          6.36120       -2.12475       -0.87533
C          4.96614       -2.13594       -0.97129
H          0.74922       -0.23460       -3.33420
H          0.64964        0.73510       -2.03369
H          2.35493       -1.96270       -1.13238
H          2.32983       -0.46224       -0.17141
H          4.40934        1.22302       -0.90613
H          6.87509        1.23134       -0.73648
H          8.13006       -0.90818       -0.71525
H          6.91152       -3.06214       -0.86865
H          4.44939       -3.09007       -1.03971
