34

N          0.92856       -0.00333       -0.13412
C          2.40439       -0.07197        0.02380
C          2.90086        0.45239        1.38792
C          2.56035        1.89675        1.66597
C          1.77732        2.23704        2.77662
C          1.46341        3.57105        3.03701
C          1.93392        4.57594        2.19389
C          2.72272        4.24996        1.09333
C          3.04044        2.91642        0.83256
C          2.88560       -1.52578       -0.15154
O          3.87081       -1.94275        0.46006
N          2.15557       -2.23985       -1.08791
C          2.33717       -3.59695       -1.42311
C          3.09603       -4.46871       -0.63452
C          3.29324       -5.79565       -1.01764
C          2.72780       -6.26947       -2.19493
C          1.94086       -5.42121       -2.97285
C          1.73252       -4.09240       -2.58129
H          0.63118        0.93339        0.15129
H          0.50452       -0.62709        0.55738
H          2.85700        0.50879       -0.79086
H          3.99470        0.35700        1.45553
H          2.50408       -0.18666        2.18887
H          1.41046        1.46631        3.45139
H          0.85580        3.82725        3.90032
H          1.69109        5.61548        2.39888
H          3.09757        5.03336        0.44036
H          3.66956        2.68235       -0.02269
H          1.46386       -1.69804       -1.59795
H          3.54196       -4.14775        0.30127
H          3.89773       -6.44824       -0.39269
H          2.90020       -7.29772       -2.50243
H          1.49892       -5.79314       -3.89337
H          1.12420       -3.45136       -3.21106
