22

N          3.24960        0.10104       -1.13192
C          2.46479       -0.03746        0.09559
C          0.96710        0.04314       -0.21282
C          2.82158       -1.32212        0.82479
C          3.38304       -1.27244        2.11197
C          3.69181       -2.44755        2.80569
C          3.44441       -3.68801        2.20541
N          3.74508       -4.92718        2.93258
O          4.20575       -4.82627        4.07903
O          3.51301       -6.00187        2.36209
C          2.90343       -3.75860        0.91757
C          2.59492       -2.57996        0.23614
H          2.93450        0.92355       -1.64355
H          3.07061       -0.69110       -1.74530
H          2.71581        0.81706        0.73580
H          0.63675       -0.76146       -0.87936
H          0.71788        0.99531       -0.69458
H          0.37721       -0.02727        0.70826
H          3.58459       -0.31254        2.58636
H          4.12068       -2.37768        3.80326
H          2.71549       -4.71398        0.43212
H          2.17535       -2.64970       -0.76511
