20

N          0.03788       -2.18398       -0.16293
C          0.00817       -0.78746        0.01884
C         -1.21334       -0.08152       -0.00336
C         -2.56722       -0.74122       -0.04337
C         -1.20468        1.32631        0.02199
C         -0.00878        2.03519        0.03658
C          1.19748        1.34741        0.01914
C          1.22107       -0.05721       -0.00836
C          2.55900       -0.74825       -0.04459
H         -0.77066       -2.66926        0.20478
H          0.89783       -2.62165        0.14702
H         -2.52891       -1.83173       -0.04624
H         -3.10658       -0.43178       -0.94458
H         -3.14779       -0.44204        0.83711
H         -2.14321        1.87609        0.01667
H         -0.01877        3.12163        0.04608
H          2.12591        1.91353        0.01375
H          3.38552       -0.03012       -0.05838
H          2.64593       -1.36775       -0.94323
H          2.68434       -1.37224        0.84649
