36

N          0.96335        0.00600       -0.17173
C          2.43956       -0.10575       -0.09762
C          2.95116       -0.47125        1.31519
C          2.61142        0.52287        2.40294
C          1.82728        0.12785        3.49589
C          1.56374        1.01676        4.53963
C          2.08081        2.30945        4.50283
C          2.85150        2.71800        3.41642
C          3.11690        1.83013        2.37113
C          2.93320       -1.16400       -1.09716
O          3.94941       -1.82137       -0.85843
N          2.18759       -1.25545       -2.26760
C          2.43052       -2.17313       -3.31330
C          3.23330       -3.30630       -3.13049
C          3.57324       -4.13547       -4.19468
C          3.07903       -3.84347       -5.46866
N          3.49874       -4.67416       -6.60420
O          4.28728       -5.60111       -6.38515
O          3.03790       -4.39092       -7.72091
C          2.21827       -2.75476       -5.66227
C          1.88028       -1.93136       -4.57736
H          0.65970        0.55287        0.63947
H          0.56458       -0.92239       -0.01594
H          2.87832        0.84481       -0.42245
H          4.04481       -0.58139        1.30898
H          2.56751       -1.46388        1.59066
H          1.42763       -0.88230        3.55295
H          0.96507        0.69561        5.38821
H          1.88935        2.99571        5.32381
H          3.25717        3.72622        3.38937
H          3.73734        2.16569        1.54293
H          1.50882       -0.51283       -2.40973
H          3.62921       -3.56944       -2.15467
H          4.23425       -4.97874       -4.00925
H          1.82683       -2.52353       -6.65134
H          1.22304       -1.08110       -4.75068
