30

N          3.19628       -1.09987       -1.05688
C          2.59658       -0.06695       -0.18199
C          1.06431       -0.20369       -0.08467
C          0.56129       -1.52749        0.44497
C          0.90064       -1.97813        1.72775
C          0.41104       -3.19763        2.20278
C         -0.42852       -3.97422        1.40525
C         -0.78032       -3.53137        0.13308
C         -0.28999       -2.31514       -0.34390
C          2.96761        1.33883       -0.72247
O          3.53845        1.51546       -1.79528
N          2.65296        2.38643        0.11821
C          2.91258        3.77307       -0.27966
C          1.84674        4.43384       -1.16593
F          0.81908        3.59818       -1.44026
F          1.31958        5.51116       -0.53171
F          2.35975        4.86730       -2.33639
H          4.18493       -0.87451       -1.18335
H          2.79991       -0.99543       -1.99277
H          3.05476       -0.16696        0.80923
H          0.65623        0.57659        0.56991
H          0.62435       -0.00518       -1.07262
H          1.55091       -1.39037        2.36879
H          0.68728       -3.54493        3.19501
H         -0.80354       -4.92432        1.77342
H         -1.43346       -4.13468       -0.49211
H         -0.57350       -1.98966       -1.34258
H          2.03697        2.22439        0.90479
H          3.88206        3.81137       -0.78862
H          3.01277        4.33848        0.65276
