35

N          3.07301       -1.33146       -0.36512
C          2.48291        0.00290       -0.08839
C          0.94986       -0.06931        0.07374
C          0.40684       -0.99092        1.14433
C          1.12167       -1.30109        2.30992
C          0.56996       -2.13513        3.28442
C         -0.70848       -2.65930        3.11422
C         -1.43651       -2.34894        1.96929
C         -0.88518       -1.51644        0.99292
C          2.83739        0.95150       -1.25794
O          3.39923        0.51496       -2.26249
N          2.51115        2.27968       -1.02270
C          2.69684        3.33974       -1.93847
C          2.95865        3.13683       -3.29639
C          3.21917        4.21427       -4.14385
C          3.20155        5.50385       -3.63198
O          3.50150        6.57587       -4.41701
C          2.88336        5.73308       -2.29969
C          2.62171        4.65166       -1.45228
H          4.05802       -1.19346       -0.60417
H          2.66952       -1.66748       -1.24494
H          2.95736        0.40041        0.81553
H          0.56388        0.93481        0.29753
H          0.51425       -0.35145       -0.89375
H          2.12589       -0.91946        2.47171
H          1.14470       -2.37984        4.17363
H         -1.13417       -3.31192        3.87065
H         -2.43357       -2.75981        1.83084
H         -1.47101       -1.28803        0.10480
H          2.24966        2.54023       -0.08113
H          2.96482        2.14253       -3.73260
H          3.43698        4.01881       -5.18868
H          3.82796        6.24554       -5.27081
H          2.85805        6.74937       -1.91727
H          2.39321        4.85318       -0.40981
