26

N          3.02332       -1.39476       -0.36414
C          2.51921       -0.07580        0.03256
C          0.99376       -0.18752        0.09226
C          3.00756        1.04977       -0.92615
C          4.54923        1.14070       -0.96831
C          5.04122        2.27713       -1.86325
C          4.44321        3.61690       -1.45446
C          2.92336        3.55210       -1.42787
C          2.41968        2.42180       -0.53396
H          4.04036       -1.41136       -0.32447
H          2.76913       -1.58514       -1.33261
H          2.88459        0.13065        1.04586
H          0.56121       -0.31938       -0.90623
H          0.54442        0.70081        0.54636
H          0.68497       -1.04049        0.70834
H          2.65774        0.81515       -1.94083
H          4.98007        0.20692       -1.34637
H          4.93939        1.28566        0.04750
H          4.77735        2.06064       -2.90530
H          6.13515        2.33305       -1.81707
H          4.76896        4.39543       -2.15307
H          4.81750        3.89872       -0.46280
H          2.54496        3.40593       -2.44694
H          2.52134        4.50753       -1.07290
H          1.32705        2.40503       -0.60411
H          2.67121        2.64609        0.51035
