32

N          1.01170       -0.13386        0.16832
C          2.48541       -0.01922        0.03310
C          2.95940       -0.19088       -1.42092
C          2.61773       -1.52976       -2.03481
C          1.79396       -1.60356       -3.16702
C          1.51543       -2.83629       -3.75972
C          2.05527       -4.00526       -3.22720
C          2.86171       -3.94491       -2.09291
C          3.14113       -2.71402       -1.49841
C          2.93954        1.36502        0.51384
O          2.25987        2.38334        0.42320
O          4.21742        1.31995        0.99064
C          4.74934        2.57855        1.45093
C          4.23721        2.87830        2.85606
C          6.27055        2.47515        1.45497
H          0.69464       -0.96782       -0.32684
H          0.58446        0.66239       -0.30995
H          2.92847       -0.77613        0.69021
H          4.04993       -0.06898       -1.47412
H          2.55005        0.61818       -2.04156
H          1.36850       -0.70180       -3.60234
H          0.88430       -2.88403       -4.64351
H          1.85111       -4.96305       -3.69838
H          3.28157       -4.85622       -1.67527
H          3.77827       -2.68809       -0.61715
H          4.46495        3.38163        0.75963
H          4.49321        2.06656        3.54696
H          3.14653        2.96721        2.86923
H          4.66077        3.81191        3.23834
H          6.61053        1.66036        2.10349
H          6.72773        3.40879        1.79804
H          6.64342        2.25579        0.44863
