23

N          3.58063        0.89969       -0.07398
C          2.42900        0.03286        0.11821
C          1.37040        0.73842        0.96747
C          2.82523       -1.30214        0.72440
C          2.62424       -2.48360        0.00431
C          2.89329       -3.71423        0.59603
N          3.35391       -3.78164        1.86384
C          3.55069       -5.08657        2.51442
C          3.60721       -2.65353        2.56599
C          3.35383       -1.40346        2.01400
H          4.30188        0.44528       -0.62816
H          3.99229        1.19369        0.80698
H          1.98712       -0.14226       -0.87168
H          1.74066        0.99283        1.96720
H          0.49011        0.09717        1.09743
H          1.03843        1.66589        0.49003
H          2.23380       -2.45409       -1.01198
H          2.72356       -4.64727        0.06561
H          3.31932       -5.89413        1.81517
H          2.87174       -5.13363        3.37121
H          4.59253       -5.15401        2.83513
H          3.99437       -2.76753        3.57521
H          3.54757       -0.51070        2.60663
