33

N          3.43854       -0.96083        0.81989
C          2.68753       -0.08317       -0.10914
C          1.15800       -0.11566        0.11187
C          0.57456        0.33387        1.43927
C          1.34200        0.73728        2.53870
C          0.73313        1.06938        3.75457
C         -0.65191        1.01917        3.88396
C         -1.43291        0.64784        2.79592
C         -0.82446        0.31000        1.58363
C          3.01113       -0.54619       -1.55388
O          2.29060       -1.29779       -2.20073
N          4.23798       -0.09675       -2.01033
C          4.79409       -0.51351       -3.29130
C          5.65715        0.60273       -3.87062
C          5.60616       -1.79625       -3.13237
H          4.42136       -0.98157        0.55576
H          3.09728       -1.91738        0.70070
H          3.04705        0.94554        0.01462
H          0.70459        0.51969       -0.66285
H          0.79150       -1.13518       -0.07280
H          2.42683        0.77706        2.48340
H          1.34784        1.35288        4.60464
H         -1.12040        1.26241        4.83481
H         -2.51560        0.60988        2.88775
H         -1.45245        0.00976        0.74659
H          4.83412        0.40481       -1.36390
H          3.96519       -0.71073       -3.98152
H          6.47919        0.86255       -3.19413
H          5.06144        1.50841       -4.02831
H          6.08689        0.30760       -4.83336
H          6.43996       -1.65418       -2.43557
H          6.01827       -2.11814       -4.09489
H          4.98536       -2.60992       -2.74268
