34

N          3.25424       -1.41988        0.48799
C          2.63918       -0.17538       -0.03977
C          1.10672       -0.16565        0.13719
C          0.57929       -0.35492        1.54366
C          1.27465        0.08783        2.67700
C          0.77099       -0.14609        3.95750
C         -0.44782       -0.79901        4.12064
C         -1.17357       -1.20207        3.00294
C         -0.66647       -0.97565        1.72207
C          2.98681       -0.03274       -1.54115
O          3.54997       -0.94366       -2.14575
N          2.63496        1.20019       -2.07164
C          2.80214        1.61094       -3.41037
C          3.08418        0.73030       -4.45653
C          3.28426        1.21330       -5.75261
C          3.19960        2.57709       -6.01246
C          2.88739        3.46029       -4.98252
C          2.67662        2.97585       -3.68609
H          4.25437       -1.39312        0.28045
H          2.91555       -2.19888       -0.08355
H          3.09767        0.66894        0.48558
H          0.69909        0.78384       -0.23303
H          0.68278       -0.94864       -0.50757
H          2.23368        0.59022        2.58656
H          1.34099        0.16834        4.82771
H         -0.82904       -0.99718        5.11814
H         -2.12811       -1.70498        3.12619
H         -1.24306       -1.30741        0.86138
H          2.34273        1.91674       -1.42001
H          3.14605       -0.34134       -4.30058
H          3.51408        0.51657       -6.55504
H          3.37665        2.94982       -7.01789
H          2.82012        4.52502       -5.18393
H          2.44330        3.68936       -2.90113
