24

N          0.89970        0.07913       -0.03166
C          2.35994        0.00258       -0.01170
C          2.82646       -1.16421        0.86500
C          2.91143       -0.04346       -1.42266
C          3.22557        1.15719       -2.08003
C          3.78196        1.15652       -3.36215
C          4.02289       -0.04649       -4.02247
O          4.56865       -0.18850       -5.26823
C          4.91823        1.01080       -5.94769
C          3.68473       -1.24582       -3.39179
C          3.12428       -1.24592       -2.11334
H          0.54630        0.06535        0.92415
H          0.52684       -0.75305       -0.48533
H          2.73155        0.91879        0.46615
H          2.43088       -2.12640        0.52214
H          2.50100       -1.02806        1.90129
H          3.92029       -1.23270        0.86424
H          3.04074        2.10979       -1.58545
H          4.01571        2.11391       -3.81538
H          5.24687        0.74199       -6.95559
H          5.75101        1.51368       -5.44442
H          4.05639        1.67833       -6.04943
H          3.86547       -2.19054       -3.90076
H          2.86441       -2.20177       -1.66733
