17

C          2.48895       -0.00763       -0.01312
C          0.98810       -0.00582       -0.00034
C          0.27382        1.19978       -0.00049
C         -1.12304        1.20220       -0.00184
C         -1.82563       -0.00195       -0.00252
C         -1.11856       -1.21094        0.00254
N         -1.85404       -2.48169        0.00566
O         -3.09259       -2.43217        0.00455
O         -1.19411       -3.53114        0.00999
C          0.28439       -1.21838        0.00320
H          2.89041        1.01110        0.00120
H          2.85654       -0.50012       -0.91903
H          2.87491       -0.53236        0.86651
H          0.80340        2.15116       -0.00043
H         -1.66244        2.14670       -0.00362
H         -2.91363        0.01811       -0.00693
H          0.83599       -2.15726        0.00465
