22

C          3.11883       -0.81431       -1.05206
N          2.77386       -0.44367        0.29835
C          3.14757        0.78490        0.80791
O          3.76408        1.61370        0.14784
C          2.79085        1.07047        2.23498
C          1.87699        0.29637        2.96210
C          1.57463        0.61901        4.29114
C          2.17001        1.72334        4.90936
C          1.86324        2.06719        6.33781
C          3.07328        2.50389        4.17959
C          3.37740        2.18141        2.85305
H          2.64098       -1.76936       -1.28482
H          4.20454       -0.91250       -1.12844
H          2.77139       -0.04587       -1.74847
H          2.50531       -1.18344        0.92893
H          1.36596       -0.55153        2.51839
H          0.86196        0.00405        4.83705
H          1.07691        1.42329        6.74553
H          1.51743        3.10307        6.41514
H          2.75837        1.93914        6.95483
H          3.54497        3.37144        4.63679
H          4.07658        2.80775        2.30069
