15

C          3.52965       -0.01067       -0.01150
C          2.02937        0.00424       -0.00169
C          1.31908        1.21197        0.00243
C         -0.07796        1.20895        0.00543
C         -0.76830       -0.00115        0.00850
Cl        -2.48905       -0.00457        0.00801
C         -0.07420       -1.20897        0.01025
C          1.32221       -1.20550        0.00242
H          3.94250        1.00334       -0.01741
H          3.89438       -0.52731       -0.90518
H          3.90640       -0.52266        0.87961
H          1.84729        2.16244        0.00234
H         -0.61903        2.15124        0.00492
H         -0.61095       -2.15316        0.01639
H          1.85771       -2.15270       -0.00118
