21

C          3.04289        0.41967        0.00337
C          1.58560        0.06647       -0.00389
C          1.16957       -1.26458       -0.00482
C         -0.19027       -1.57835       -0.00475
C         -1.16654       -0.56915       -0.00395
C         -2.61751       -0.96401        0.00418
C         -0.75850        0.77786       -0.00734
C         -1.72741        1.92922       -0.01383
C          0.61693        1.07784       -0.00655
H          3.67264       -0.47680       -0.00201
H          3.28759        0.99453        0.90217
H          3.29408        1.01018       -0.88318
H          1.89898       -2.07122       -0.00459
H         -0.48434       -2.62577       -0.00412
H         -2.73963       -2.05245        0.00326
H         -3.12211       -0.57718       -0.88681
H         -3.10947       -0.58031        0.90372
H         -2.77209        1.60942       -0.00360
H         -1.57917        2.53569       -0.91360
H         -1.56868        2.55598        0.87011
H          0.93554        2.11996       -0.00763
