21

C          0.87849       -0.16992       -0.11460
C          2.38222       -0.11916        0.00169
C          3.09897        1.08789        0.16663
C          2.48429        2.46333        0.15232
C          4.49739        1.04289        0.32556
C          5.18749       -0.16451        0.31749
C          4.49311       -1.35054        0.12466
C          3.10073       -1.34483       -0.04357
C          2.40374       -2.65876       -0.29254
H          0.39008        0.80096       -0.04652
H          0.46636       -0.77708        0.69912
H          0.58680       -0.60692       -1.07494
H          1.39755        2.47388        0.08703
H          2.86492        3.02444       -0.70869
H          2.75375        3.00096        1.06878
H          5.05927        1.96607        0.45744
H          6.26578       -0.17676        0.44960
H          5.04741       -2.28656        0.10400
H          3.11142       -3.49495       -0.29627
H          1.91216       -2.64516       -1.27018
H          1.66501       -2.85887        0.48926
