15

C          2.49019       -0.00881       -0.01183
C          0.99046        0.00342       -0.00262
C          0.27976        1.20960       -0.00057
C         -1.11631        1.20688        0.00240
C         -1.81296       -0.00019        0.00310
C         -1.11429       -1.20593        0.00179
C          0.28151       -1.20473       -0.00113
H          2.90038        1.00627        0.00537
H          2.85690       -0.50417       -0.91647
H          2.86915       -0.53837        0.86826
H          0.80783        2.16022       -0.00161
H         -1.66026        2.14773        0.00351
H         -2.89955       -0.00106        0.00444
H         -1.65614       -2.14789        0.00248
H          0.81507       -2.15248       -0.00276
