36

C          0.85637        0.01103       -0.05366
C          2.39702       -0.00242       -0.06086
C          2.94211       -1.11904       -0.96543
C          2.44911       -2.51184       -0.63556
C          1.73650       -3.24856       -1.59204
C          1.27694       -4.53493       -1.30110
C          1.52547       -5.09960       -0.05297
C          2.23718       -4.38082        0.90506
C          2.70078       -3.09512        0.61552
C          2.85628        1.42171       -0.42926
O          2.13728        2.37699       -0.12735
N          4.09247        1.55501       -1.03412
C          4.69229        2.79042       -1.39029
C          4.30887        4.01238       -0.82430
C          4.86896        5.21589       -1.25687
C          5.83319        5.19856       -2.25277
O          6.37554        6.35485       -2.72749
C          6.26698        3.99521       -2.79501
C          5.70507        2.78930       -2.35732
H          0.42807       -0.95818        0.21006
H          0.46812        0.30522       -1.03657
H          0.47491        0.73494        0.67634
H          2.73988       -0.16992        0.96812
H          4.03700       -1.15963       -0.89460
H          2.71858       -0.88056       -2.01290
H          1.52602       -2.82488       -2.57120
H          0.72163       -5.09454       -2.04930
H          1.16415       -6.09973        0.17304
H          2.43061       -4.82294        1.87968
H          3.25647       -2.55469        1.37821
H          4.53190        0.73375       -1.43013
H          3.57284        4.06316       -0.02826
H          4.53076        6.14305       -0.80493
H          5.91065        7.10143       -2.31328
H          7.02809        3.99800       -3.57057
H          6.04640        1.86443       -2.81421
