22

C          0.93857        0.04113       -0.10033
C          2.44500        0.22894       -0.10104
C          2.97672        0.54179        1.29488
O          4.38973        0.72233        1.19435
C          5.05072        0.99887        2.35977
C          4.64247        0.61148        3.63635
C          5.43200        0.91612        4.74995
C          6.63056        1.61130        4.59120
C          7.04344        1.99552        3.31749
C          6.25932        1.68425        2.20665
H          0.58625       -0.21290       -1.10504
H          0.43002        0.95708        0.21733
H          0.64368       -0.76760        0.57676
H          2.72266        1.03182       -0.79475
H          2.93099       -0.67846       -0.47993
H          2.73450       -0.30024        1.95230
H          2.51493        1.45965        1.67793
H          3.73063        0.04868        3.79973
H          5.11610        0.60149        5.74047
H          7.24488        1.84276        5.45673
H          7.97976        2.53379        3.18675
H          6.58690        1.98051        1.21346
