18

C          2.50577       -0.01176       -0.00848
C          1.00606        0.00539       -0.00214
C          0.30241        1.21435       -0.00160
C         -1.09428        1.22041       -0.00920
C         -1.81395        0.01740       -0.01881
C         -3.32193        0.01175       -0.04313
F         -3.87322        1.25832       -0.05039
F         -3.82331       -0.62120       -1.14056
F         -3.86083       -0.62587        1.03336
C         -1.10515       -1.19336       -0.01272
C          0.29202       -1.19856       -0.00481
H          2.91921        1.00237        0.00933
H          2.87256       -0.50711       -0.91330
H          2.88259       -0.54246        0.87183
H          0.83663        2.16232        0.00211
H         -1.61933        2.17504       -0.01134
H         -1.64192       -2.14115       -0.01817
H          0.82236       -2.14882       -0.00434
