27

C          1.02083        0.03024       -0.19308
C          2.53943        0.09300       -0.00020
C          3.13404        1.09198       -0.99999
C          2.99031        0.39250        1.46074
C          2.49791       -0.69477        2.43773
C          2.91930       -0.42000        3.87914
C          2.46118        0.96049        4.33161
C          3.00717        2.04059        3.40810
C          2.59587        1.79779        1.95609
H          0.77428       -0.17192       -1.24047
H          0.53376        0.96895        0.08461
H          0.57405       -0.77639        0.39668
H          2.93890       -0.89532       -0.26570
H          2.72059        2.09684       -0.86640
H          2.91430        0.78276       -2.02818
H          4.22244        1.14893       -0.89721
H          4.09065        0.34911        1.46868
H          2.88694       -1.67267        2.12984
H          1.40526       -0.76452        2.41446
H          4.00953       -0.49635        3.96659
H          2.49126       -1.18371        4.53852
H          2.79894        1.14555        5.35738
H          1.36588        1.00485        4.34568
H          4.10174        2.06737        3.47900
H          2.64269        3.02208        3.73134
H          3.07204        2.56500        1.33500
H          1.51296        1.94161        1.87056
