18

C          2.49349        0.00009       -0.01345
C          0.99289        0.01437       -0.00114
C          0.28864        1.22268       -0.00292
C         -1.10632        1.22870       -0.00406
C         -1.81023        0.02393       -0.00138
C         -1.12501       -1.19976        0.00589
C         -1.87606       -2.50783        0.00618
F         -3.23073       -2.35369        0.00699
F         -1.59142       -3.27418       -1.08361
F         -1.59052       -3.28080        1.09045
C          0.27992       -1.19226        0.00486
H          2.90351        1.01524        0.00132
H          2.85728       -0.49606       -0.91878
H          2.87401       -0.52817        0.86635
H          0.82070        2.17161       -0.00464
H         -1.64524        2.17189       -0.00747
H         -2.89869        0.04614       -0.00595
H          0.82183       -2.13837        0.00523
