12

C          1.00362       -0.02877       -0.07313
N          2.44211        0.03171       -0.11308
C          3.08412        1.06011       -0.76004
O          2.49606        1.97183       -1.33340
C          4.58669        0.98949       -0.71574
H          0.70203       -0.91750        0.48559
H          0.61586       -0.07886       -1.09436
H          0.61807        0.86995        0.41623
H          2.97764       -0.69514        0.34278
H          4.93898        0.11349       -0.16464
H          4.97021        1.88792       -0.22457
H          4.97027        0.93583       -1.73826
