10

C          0.93633        0.07035        0.03725
C          2.45330        0.06531        0.03586
C          2.95996       -1.31583       -0.34644
C          3.39457       -2.50057       -0.67438
H          0.55643        1.06067        0.31137
H          0.54264       -0.65842        0.75369
H          0.54264       -0.18630       -0.95195
H          2.83265        0.32780        1.02890
H          2.83265        0.80106       -0.68087
H          3.74972       -3.46887       -0.94240
