18

C          2.51009        1.08574        0.00878
C          1.21613        0.32578        0.00242
C          1.20923       -1.07285        0.00384
C          0.00314       -1.77234       -0.00016
C         -1.20791       -1.08030       -0.00408
C         -1.22312        0.31821       -0.00318
C         -2.52120        1.06964       -0.00723
C         -0.00569        1.01442       -0.00159
H          3.37193        0.40921        0.00227
H          2.57942        1.70677        0.90752
H          2.57934        1.72296       -0.87823
H          2.14376       -1.62935        0.00813
H          0.00603       -2.85879        0.00048
H         -2.13891       -1.64227       -0.00704
H         -3.37877        0.38876        0.01833
H         -2.60389        1.67840       -0.91340
H         -2.58585        1.71910        0.87186
H         -0.00884        2.10284       -0.00268
