22

C          2.48560       -0.12711       -0.00788
C          0.99026       -0.01193       -0.00426
C          0.37473        1.24096        0.00512
C         -1.01948        1.35154        0.00038
C         -1.82644        0.21356       -0.01453
N         -3.23732        0.25327       -0.02934
C         -4.03936        1.38052       -0.03561
O         -3.66835        2.55015       -0.02031
C         -5.51468        1.06722       -0.06691
C         -1.20875       -1.04457       -0.01923
C          0.18771       -1.15667       -0.01497
H          2.96193        0.85921        0.01088
H          2.82307       -0.64314       -0.91217
H          2.82632       -0.67862        0.87387
H          0.97014        2.15105        0.01476
H         -1.44022        2.35123        0.00674
H         -3.70205       -0.64556       -0.04249
H         -5.71476       -0.00668       -0.08076
H         -5.95042        1.51423       -0.96526
H         -5.98554        1.49856        0.82122
H         -1.79976       -1.95611       -0.02847
H          0.64442       -2.14430       -0.02081
