31

C          0.96511       -0.05894       -0.03850
N          2.39881       -0.18790       -0.01303
C          3.04436       -1.06365       -0.86243
O          2.46083       -1.76273       -1.68097
C          4.52986       -1.10146       -0.76094
C          5.19681       -0.82119        0.43732
C          6.59328       -0.87266        0.49166
C          7.33908       -1.21973       -0.64303
C          8.84714       -1.27975       -0.59698
C          9.41911       -2.27661        0.41750
C          9.00610       -3.72472        0.14846
C          9.62121       -4.66526        1.17367
C          6.66250       -1.50967       -1.83623
C          5.26802       -1.45692       -1.89398
H          0.67382        0.74506        0.64138
H          0.51815       -1.00226        0.28666
H          0.63326        0.17026       -1.05466
H          2.93441        0.49039        0.51009
H          4.64739       -0.59113        1.34557
H          7.09381       -0.65172        1.43247
H          9.21792       -0.27464       -0.35941
H          9.24391       -1.52003       -1.59151
H          9.12156       -1.99290        1.43412
H         10.51367       -2.20607        0.38338
H          9.32381       -4.02475       -0.85686
H          7.91603       -3.82806        0.18983
H         10.71433       -4.62403        1.13682
H          9.31156       -5.69666        0.97939
H          9.30161       -4.39988        2.18680
H          7.21673       -1.78707       -2.73102
H          4.75849       -1.69315       -2.82591
