15

C          3.06739       -0.00463       -0.00160
C          1.56682       -0.00805       -0.00078
C          0.85271       -1.21447       -0.00126
C         -0.54268       -1.20630       -0.00213
C         -1.22155        0.00641       -0.00294
F         -2.56108        0.01239       -0.00458
C         -0.53135        1.21210       -0.00248
C          0.86425        1.20617       -0.00110
H          3.47029       -1.02274        0.00286
H          3.44404        0.50919        0.88854
H          3.44257        0.50096       -0.89716
H          1.37816       -2.16681       -0.00123
H         -1.10260       -2.13561       -0.00269
H         -1.08273        2.14682       -0.00322
H          1.40229        2.15156       -0.00062
