23

N          3.43188        0.45551        0.87766
C          2.50587       -0.10043       -0.10599
C          2.32212        0.85497       -1.28391
C          2.98966       -1.46855       -0.55244
C          2.20145       -2.60480       -0.34596
C          2.68294       -3.86178       -0.69776
N          3.91281       -3.99987       -1.23867
C          4.44691       -5.33523       -1.54809
C          4.68778       -2.91796       -1.47465
C          4.24535       -1.64417       -1.14239
H          3.00415        1.27639        1.31098
H          4.26517        0.81702        0.41690
H          1.53451       -0.21561        0.39140
H          3.25217        1.00591       -1.84278
H          1.97581        1.83621       -0.94107
H          1.57591        0.46351       -1.98448
H          1.21633       -2.51846        0.11085
H          2.09381       -4.76037       -0.53814
H          3.69608       -6.09953       -1.33185
H          5.32874       -5.49057       -0.92138
H          4.71020       -5.35774       -2.60816
H          5.66570       -3.08641       -1.91745
H          4.89839       -0.79211       -1.31968
