33

N          1.09322       -0.02022        0.20098
C          2.56639        0.05952        0.00793
C          3.01726       -0.26807       -1.42919
C          2.66950       -1.66056       -1.90289
C          1.83209       -1.84487       -3.01178
C          1.56222       -3.12896       -3.48758
C          2.12663       -4.23878       -2.86245
C          2.94987       -4.06726       -1.75100
C          3.21913       -2.78535       -1.27251
C          3.06771        1.47007        0.38430
O          4.03562        2.00029       -0.14770
N          2.36547        2.05829        1.41842
C          2.68123        3.39123        1.89901
C          1.95667        4.46874        1.09348
C          2.35433        3.51259        3.38027
H          0.78164       -0.91659       -0.18370
H          0.65585        0.68496       -0.39360
H          3.03661       -0.63757        0.71467
H          4.10797       -0.16285       -1.51299
H          2.60171        0.47712       -2.12166
H          1.39702       -0.98989       -3.52447
H          0.92143       -3.26281       -4.35532
H          1.93260       -5.23691       -3.24582
H          3.39442       -4.93208       -1.26538
H          3.87748       -2.67061       -0.41383
H          1.49767        1.59262        1.66973
H          3.75956        3.54478        1.77287
H          0.86964        4.37032        1.18084
H          2.21151        4.40871        0.02971
H          2.23665        5.46676        1.44810
H          1.28115        3.38645        3.56442
H          2.65612        4.49177        3.76399
H          2.88353        2.74480        3.95654
