14

N         -3.39148        0.00586       -0.15576
C         -2.00189        0.00558        0.00576
C         -1.29025       -1.19759       -0.03550
C          0.10817       -1.20140       -0.01485
C          0.80118        0.00517        0.00446
Cl         2.52128        0.00550        0.01529
C          0.10793        1.21269       -0.00781
C         -1.29017        1.20807       -0.02913
H         -3.84687       -0.83702        0.18032
H         -3.84674        0.84861        0.18048
H         -1.81956       -2.14503       -0.08762
H          0.64432       -2.14612       -0.03181
H          0.64385        2.15674       -0.01907
H         -1.81978        2.15614       -0.07564
