14

N          0.95897       -2.27800       -0.20313
C          1.52021       -1.00183       -0.01861
C          0.74374        0.17037       -0.01596
I         -1.35479        0.09303       -0.03397
C          1.34654        1.43310        0.02781
C          2.73643        1.54031        0.03054
C          3.51966        0.39065       -0.02188
C          2.91378       -0.86811       -0.06629
H         -0.00904       -2.32817        0.10514
H          1.52631       -3.03614        0.16175
H          0.74639        2.33888        0.04918
H          3.20710        2.51978        0.05680
H          4.60347        0.47068       -0.04542
H          3.54354       -1.75123       -0.14338
