24

N          2.88916       -0.33164        1.25765
C          2.46546        0.02400       -0.10042
C          2.97054       -0.99120       -1.13101
O          4.39971       -1.00150       -1.11983
C          4.91993       -1.94054       -2.05594
C          6.42296       -1.92737       -1.97293
C          7.07114       -2.27876       -0.77992
C          8.46492       -2.27676       -0.70454
C          9.22321       -1.92625       -1.81991
C          8.58990       -1.56825       -3.00880
C          7.19593       -1.56735       -3.08572
H          2.58039        0.39309        1.90662
H          3.91164       -0.31545        1.27374
H          2.85604        1.01784       -0.34017
H          1.37173        0.06679       -0.13338
H          2.62200       -0.69934       -2.12887
H          2.58515       -1.99182       -0.90126
H          4.58956       -1.66740       -3.06455
H          4.55007       -2.95114       -1.83408
H          6.48568       -2.54743        0.09725
H          8.95776       -2.54703        0.22581
H         10.30865       -1.92986       -1.76210
H          9.18184       -1.28738       -3.87590
H          6.71893       -1.27862       -4.01940
