7

N          1.05930        0.01330        0.06523
C          2.51122        0.00671        0.07779
H          0.71556        0.49941        0.89240
H          0.71556       -0.94356        0.13547
H          2.89385        1.03024        0.03531
H          2.89385       -0.54013       -0.78845
H          2.88624       -0.47053        0.98758
