27

N          1.12611       -0.00369       -0.03116
C          2.58183       -0.03514        0.17961
C          2.95133        1.08248        1.14937
C          2.89489        0.91149        2.54327
C          3.17539        1.97578        3.40341
C          3.50010        3.22787        2.88595
C          3.54766        3.41966        1.50693
C          3.27480        2.35578        0.64523
C          3.11161       -1.42365        0.54150
C          2.28186       -2.55819        0.59370
C          2.80829       -3.82699        0.85048
C          4.17532       -3.98846        1.05490
C          5.01651       -2.87972        1.01155
C          4.49034       -1.61064        0.75473
H          0.87194        0.93739       -0.32451
H          0.68211       -0.12952        0.87839
H          3.03836        0.19180       -0.79362
H          2.63046       -0.05488        2.96860
H          3.13415        1.82746        4.47965
H          3.71015        4.05718        3.55696
H          3.78957        4.39913        1.10193
H          3.30390        2.52759       -0.42887
H          1.21309       -2.47160        0.41170
H          2.14812       -4.69061        0.87391
H          4.58459       -4.97851        1.23727
H          6.08557       -3.00421        1.16609
H          5.17050       -0.76179        0.71221
