11

N          1.06096        0.20692        0.08639
N          2.46769        0.10039        0.09017
C          3.05483       -1.05731        0.59615
O          2.43172       -1.94979        1.16261
C          4.54920       -1.10808        0.39621
H          0.79758        1.12276        0.46377
H          0.70555       -0.47546        0.76449
H          3.00276        0.70129       -0.52948
H          4.94623       -0.14461        0.07130
H          4.78708       -1.86394       -0.35820
H          5.02444       -1.37024        1.34549
